498
Properties=species:S:1:pos:R:3 pbc="F F F"
O       11.17480000       9.04417000       0.64341600
H       11.99860000       8.48091000       0.70822300
H       10.51310000       8.59880000       0.04030230
O       11.24350000       3.67019000       0.36625000
H       10.26540000       3.86427000       0.29155100
H       11.50890000       3.66106000       1.33037000
O        7.82385000      10.81740000       5.06340000
H        8.67645000      10.81260000       5.58594000
H        7.21566000      11.52440000       5.42429000
O        0.56442300      10.44180000      10.73290000
H        0.33381200       9.48047000      10.88350000
H       12.20480000      11.01500000      10.98510000
O        4.49564000      10.85640000       1.74439000
H        4.21699000      11.20130000       2.64072000
H        3.68345000      10.62100000       1.21061000
O        0.66480700      10.76270000       2.55589000
H        1.34279000      10.66270000       1.82763000
H        0.41785700       9.85974000       2.90759000
O        0.30945900       5.45077000      11.36020000
H       12.15040000       6.24676000      11.18390000
H       12.24730000       4.81468000      11.96260000
O        2.55526000       8.37175000       2.80240000
H        3.33097000       7.81482000       3.09922000
H        1.97013000       8.57380000       3.58777000
O        3.65752000       1.15585000       0.03327850
H        3.53261000       1.80299000       0.78534200
H        3.37572000       0.24301000       0.32876300
O        9.86928000       9.46872000       3.57232000
H        9.17606000       9.75251000       4.23482000
H       10.76690000       9.45824000       4.01295000
O        7.31386000       0.50711200       6.57778000
H        6.37720000       0.81821400       6.41688000
H        7.95627000       1.19064000       6.23124000
O        2.55223000      10.54700000       0.16854500
H        1.93134000      10.78700000      11.84230000
H        2.63922000       9.55223000       0.22286200
O        4.69126000       6.72194000       2.99884000
H        5.54691000       7.09722000       2.64241000
H        4.33723000       6.03658000       2.36248000
O        9.92555000      11.25960000       6.70764000
H       10.45050000      10.50660000       7.10421000
H       10.51370000      12.06290000       6.61394000
O        3.73183000       6.86213000      11.14270000
H        4.00575000       6.37362000      10.31420000
H        3.26060000       7.70741000      10.89080000
O        9.95022000      10.77460000       9.86443000
H       10.50800000      10.35870000       9.14613000
H       10.46530000      11.51170000      10.30170000
O        6.03318000       4.25438000      12.19280000
H        5.79378000       4.66453000      11.31270000
H        5.40717000       4.58833000       0.47747300
O        4.81770000       3.63178000       3.83558000
H        3.92443000       3.80358000       3.42019000
H        4.89025000       2.66541000       4.08229000
O       11.83390000       9.94419000       7.99409000
H        0.22365200      10.03180000       8.57433000
H       12.07170000       9.43988000       7.16395000
O        6.04698000      11.50430000      11.80640000
H        5.89940000      10.72750000      11.19410000
H        5.80827000      11.24180000       0.32131800
O        5.21887000       2.12183000       9.55702000
H        5.41652000       3.08318000       9.36537000
H        4.78539000       1.70497000       8.75807000
O        7.93269000       0.99025400       9.55615000
H        7.15753000       1.59498000       9.37331000
H        8.74461000       1.53957000       9.75371000
O        5.37340000       5.18448000       5.96068000
H        5.46692000       4.59486000       6.76293000
H        5.28984000       4.61958000       5.13976000
O        8.83333000       6.13684000       5.02406000
H        7.94882000       6.49768000       5.31975000
H        8.77018000       5.14438000       4.91905000
O        5.83100000       7.71613000       7.77992000
H        5.89162000       6.79661000       8.16827000
H        5.05677000       8.19992000       8.18800000
O        3.63659000       9.88829000       5.19357000
H        3.82961000      10.53490000       4.45555000
H        2.69224000      10.00550000       5.50091000
O        2.81587000       3.83354000       7.61859000
H        3.18163000       2.90285000       7.62307000
H        3.50332000       4.46359000       7.97976000
O        2.47197000       3.21661000      11.24270000
H        3.21785000       2.55146000      11.20760000
H        2.13108000       3.28599000      12.18020000
O        2.45220000       6.58508000       5.69527000
H        2.14633000       5.80150000       5.15449000
H        1.80535000       7.33958000       5.58424000
O        0.38958900      12.13270000       5.22914000
H        0.25989400      11.22700000       5.63274000
H        0.78356700      12.03700000       4.31502000
O        6.29482000       1.15125000       1.75534000
H        5.81969000       0.81107200       2.56684000
H        7.28265000       1.07542000       1.89118000
O        7.25780000       7.04863000      10.48090000
H        6.68673000       6.35680000      10.03910000
H        6.70087000       7.58526000      11.11490000
O        6.67218000       8.20717000       4.83114000
H        7.02443000       7.86546000       3.95984000
H        7.00183000       9.13924000       4.98141000
O        8.75724000       9.88375000      12.05040000
H        9.08666000      10.18710000      11.15630000
H        7.79891000       9.60782000      11.97650000
O        1.00131000       4.03385000       5.50174000
H        0.11658600       4.43895000       5.73231000
H        1.59184000       4.04144000       6.30872000
O        0.72814400       1.86424000       8.68986000
H       12.32010000       1.69161000       8.15651000
H        1.28626000       1.03492000       8.71669000
O        1.84753000       2.01517000       3.65060000
H        2.59295000       1.37699000       3.84311000
H        1.55186000       2.44885000       4.50177000
O       11.37380000       6.23515000       5.79642000
H       11.80100000       7.12792000       5.65331000
H       10.37920000       6.33149000       5.75763000
O        8.63468000       2.12875000      12.11230000
H        9.23546000       2.27981000      11.32730000
H        8.72591000       2.89081000       0.33333100
O        5.64725000      10.92580000       8.42374000
H        4.96700000      10.28140000       8.77299000
H        5.22693000      11.51080000       7.73013000
O       11.99580000       7.83187000      10.20710000
H        0.18688500       7.68096000       9.43003000
H       11.05010000       7.67430000       9.92291000
O        7.38230000       7.22681000       2.51998000
H        7.47517000       6.30142000       2.88745000
H        8.28965000       7.60594000       2.33836000
O       11.25680000       0.37929300      11.43250000
H       10.64350000       1.11711000      11.15060000
H       11.50160000       0.49860500      12.39470000
O       10.22670000       2.26874000       9.68049000
H        9.94115000       2.98121000       9.03951000
H       11.19100000       2.05141000       9.52934000
O       10.02270000       6.88116000       2.68327000
H        9.72376000       6.38222000       3.49673000
H       10.09180000       7.85567000       2.89666000
O       11.10520000       1.35300000       6.85699000
H       10.51270000       2.06981000       6.48946000
H       11.86050000       1.18721000       6.22287000
O       11.82740000       0.77596800       1.81591000
H        0.04290630       0.11395800       2.21321000
H       11.87630000       1.63364000       2.32778000
O        1.46705000       6.45515000       8.65622000
H        1.80788000       6.20728000       7.74936000
H        1.83436000       7.34769000       8.91786000
O       11.46340000       4.73260000       8.07731000
H       11.66190000       5.52622000       7.50220000
H       10.49400000       4.49931000       8.00035000
O        9.18154000       0.77119000       2.53330000
H       10.07760000       1.09115000       2.22560000
H        9.02901000       1.06430000       3.47713000
O       11.49790000       3.28939000       3.03692000
H       11.88100000       4.19489000       3.21952000
H       10.90520000       3.01905000       3.79557000
O        7.27719000      10.80320000       2.41456000
H        6.33324000      10.62080000       2.13948000
H        7.29524000      11.09490000       3.37091000
O        7.07980000       4.44448000       2.99939000
H        7.91896000       3.90488000       3.06757000
H        6.29149000       3.86084000       3.19412000
O        3.66577000       5.42917000       0.88471200
H        2.90623000       4.77966000       0.91997900
H        3.54116000       6.04586000       0.10743600
O        8.36946000       8.77089000       7.93055000
H        8.97909000       8.13631000       8.40558000
H        7.46131000       8.36078000       7.84649000
O        4.01213000       1.26952000       7.23484000
H        4.20734000       1.12745000       6.26442000
H        3.21140000       0.73049000       7.49614000
O        8.89641000       4.22523000       7.99581000
H        8.99429000       4.14585000       7.00378000
H        8.01758000       4.65107000       8.21102000
O        6.17566000       8.31265000       0.21334500
H        5.21722000       8.02777000       0.22828600
H        6.62104000       8.02879000       1.06250000
O        9.63251000       6.87318000       9.41816000
H        8.68651000       6.97089000       9.72723000
H        9.83211000       5.90678000       9.25617000
O        1.53692000       3.73006000       1.53144000
H        0.84223500       4.39382000       1.80864000
H        1.61650000       3.01931000       2.23037000
O        2.01200000      11.79640000       8.63486000
H        1.42768000      11.52120000       9.39831000
H        2.72489000      11.10900000       8.49614000
O        8.60793000       4.57311000       0.63865700
H        8.73579000       5.48819000       1.02112000
H        7.67166000       4.48142000       0.29955400
O        0.04128310       5.62916000       2.80448000
H       11.60490000       6.09260000       2.57694000
H        0.37417300       5.95886000       3.68793000
O        1.45436000       7.86742000       0.30098300
H        1.74221000       7.65697000       1.23525000
H        1.29274000       7.01589000      12.22220000
Na       1.12746000       4.25649000       9.54860000
Na       6.21761000       1.32931000      11.72290000
Na       8.02797000      11.37130000       8.15604000
Na       4.63827000       7.41392000       5.57682000
Na       9.70314000      10.79870000       1.49432000
Cl       9.08852000       3.01051000       5.24255000
Cl       4.56284000       0.52640500       4.34726000
Cl       0.26379600       8.92415000       5.06047000
Cl       5.65719000       4.88027000       9.09220000
Cl       3.41455000       9.02229000       9.09565000
X       -2.62801184      -1.25614704      -6.01433621
X       -4.49390870      -3.87292965      -4.52028739
X        0.25711801       5.65384302       2.58132674
X        3.01753594       3.37314366      -4.79038007
X       -3.46608378       2.22689581      -0.70810402
X       -3.14822356       3.00291313       4.82383626
X       -2.21626682      -1.53849368      -5.52384889
X        3.58505388       5.73367496       0.51386202
X        2.28108578       6.19981195       5.40093902
X        3.49975253       0.69406177       0.20474828
X        0.41096843      -1.51966242       2.42967057
X        3.65420185      -2.82327395       5.08359927
X       -2.18580035      -1.27610370      -2.34932893
X       -0.84527864      -5.72223157       5.71994337
X       -0.83426028      -3.67781715       0.66862143
X        5.03557889       2.10480761      -2.61671417
X        0.81925502      -1.89054007      -1.48350738
X        1.83821150      -0.65606548      -4.02096748
X        0.20814312       5.81761334       3.25797423
X        5.26464021       5.00776209      -3.53396434
X       -4.04035952      -6.11806068       5.17036786
X       -5.06733458       0.47297340      -5.54478349
X       -1.48204774       0.75894217      -1.11440487
X       -0.88288670      -4.64854287      -2.37606440
X       -2.88922159      -2.81753070       3.92882389
X        2.25722181      -3.95875525       3.22120611
X       -5.56525063      -4.35972726       4.39460732
X        5.71400899       4.43838241       0.12011646
X        5.40498154      -1.19656619      -4.36030478
X       -2.31691871       2.63314628      -3.06300217
X       -1.48262752       1.07075844      -5.57584252
X        4.58504748      -5.07241402       5.38265851
X       -5.63284426      -1.70614127       2.29179705
X       -2.70123515      -6.05027681      -3.07947481
X        4.08796648      -1.69063620       1.50627189
X        2.92958586      -4.32463601       2.97585526
X       -2.36503917      -5.05990296       2.81092685
X        1.27427283       4.04637546       5.92042583
X       -2.78888231       0.95869770       2.39646872
X        1.57575503      -6.17164361      -3.56529946
X       -4.87078238       1.32259180      -2.95608478
X        4.53624119      -6.04264707       2.68032130
X        2.23311163       1.69796276       3.76220978
X        1.59917503      -4.68544162       0.76358716
X       -0.45401620      -2.74494193      -4.83819752
X       -1.22937268       3.16527190       3.42758723
X        0.33052660      -0.76769923       5.42025138
X       -0.73334531       3.72016976       3.15342324
X       -1.57108008      -3.62886825       0.32993519
X       -2.62828862      -1.53794883       1.32035698
X        1.61995777       1.84666919       3.56467860
X       -1.44537325       4.62708586      -4.40257900
X       -0.00147001      -3.38114864       4.68786892
X       -0.54959773       1.20252373       2.07391282
X        2.37986337      -0.96858752      -3.83332552
X       -3.96905336       4.45199515      -4.32558326
X        5.51680722       1.98904474      -2.84736107
X       -4.39070414      -1.09918077      -4.46966689
X        5.30154750       2.60086330      -2.97933553
X        5.84551199      -5.17254022      -4.42534437
X       -0.37225686      -4.27974650      -2.10451168
X        1.01000784      -1.72843004       2.18734833
X       -6.03613542      -4.26122980       0.64684480
X       -4.99290618      -1.89135562       2.41498776
X        0.06239729       5.14903865      -0.75609150
X       -0.93658346       1.29679648      -5.89725667
X       -1.17731238       1.44973433      -5.27581061
X       -3.49200508       4.19838269      -4.92415685
X        3.67956626       5.59467862       1.18123951
X       -4.96895530      -5.65519774       2.68006685
X        5.72039082      -1.30966593      -3.76722977
X       -6.07531675      -0.86425040      -0.61924658
X       -5.01224044      -5.20573554      -2.17423740
X        4.83033623       3.14244083       3.95820245
X        1.82412506       3.89802537       1.52475294
X       -5.71096483       4.14180252       3.10888432
X       -0.87533046       5.13820411      -4.63280017
X        1.38832123      -4.99431201       0.05830520
X       -1.09569814       3.33434495       2.77392398
X       -3.24474846      -5.51957058      -2.84528795
X       -0.95396685       6.04733291       5.56263714
X       -5.57154452      -3.74270005       4.89085323
X       -2.10012826      -2.94796929       3.81395033
X        6.11697501      -4.54827148      -4.57455617
X        3.27750730       5.11096084       0.88902442
X        4.51998641      -5.10617117       5.72145292
X        4.83910691       3.80958353       4.11287469
X        1.72047589       2.22462162       4.09394677
X       -0.26554976       0.45366767       2.03284821
X        2.26531935      -1.76101335      -0.20812638
X       -4.17647853      -1.59218292       5.32322026
X       -2.18227410      -0.77676489      -5.76573779
X        4.35254359       3.70409275       3.62031404
X       -2.60106536      -3.26831495       3.47697946
X        5.33758626       4.88512398       5.56397260
X       -0.65533643      -2.19877698      -4.53002055
X        4.26011312       1.17195764      -5.00519912
X       -0.00666243       5.84131438      -1.13353870
X        1.56561107       3.38449542       1.88552653
X       -4.07672122       2.14544390      -0.41636639
X       -6.18194944       1.53967270      -0.67398633
X        1.01305997       4.36319463      -3.01461376
X       -0.89052325       0.67387638       1.87815007
X       -3.50003815      -2.80130226      -0.30022187
X       -0.37288195       5.87273524       2.70296003
X        2.59728759      -2.37972178       0.17158703
X       -4.79517965       0.86576652      -6.02532950
X       -5.45344969      -5.09810504      -1.64733634
X       -4.89019167      -1.25413642       5.25392625
X        0.31235806       1.75441257      -3.99996401
X       -3.51904869      -6.17874229       4.72217665
X        2.12878554      -0.32073790      -3.73731073
X       -4.58018244      -5.01290928       2.42320707
X        5.92272619      -1.07352812      -0.14396873
X        1.69014914      -4.37842786       0.16479555
X        6.06979959       0.96886639       2.18279523
X       -3.75930036       5.04972617       0.83970434
X        5.86714360      -1.65033875      -4.14181747
X        5.74638158      -4.74513828      -4.93410120
X        1.17619704       4.04878001       1.67748778
X        2.85626451       2.88159951      -1.17786647
X        4.62144842      -1.32252308       1.59863117
X       -2.61904876      -1.54571109       1.66718545
X       -2.98128568       2.90807478       5.55464894
X        3.71157130      -2.19280793       4.80252554
X       -4.27023988       4.54817290       0.47157288
X        0.56058416       5.57767551      -0.90153044
X       -4.98170151      -5.53000357      -1.76979262
X        4.33111495      -1.38984831       2.21443048
X        4.45920190      -5.44815798       3.00383123
X       -0.81960539      -2.61959624      -4.26609800
X        3.57801864       1.47983035       0.44504257
X       -5.61562110      -4.40190464       5.04824131
X       -0.92315066       4.81316578      -4.04585736
X        0.80408991      -1.50498534       2.79324443
X       -3.20695216       0.46350258       2.53966031
X       -1.70644831       2.16238121      -2.82844945
X       -6.06604044       4.34819828      -0.14797771
X        1.33270907       4.30368397      -2.89497388
X       -6.15375258       1.27596221      -0.89632068
X        3.60338918       0.98147951      -5.07342735
X        4.62149791       0.61124055       4.83209655
X       -5.31448147       4.68924694       3.21011197
X        1.16166922      -5.91840652      -3.78969933
X       -3.68587432       1.87353163      -0.17793847
X       -3.35431373       6.19330395       5.25673593
X       -5.16398767      -1.46154525       2.90032397
X        3.47348127       1.25373896      -0.19841521
X        4.84244873      -5.04700992       5.61158256
X        3.95681794       1.14377713      -0.00376519
X       -6.06016489      -4.20339969       4.80886427
X       -2.54260604      -2.73185423       3.35671103
X       -5.36263661       4.51934773       2.71269114
X       -0.96637662       6.14546854       6.10379128
X       -4.26304331      -0.88429944      -4.23089134
X       -1.60078361       1.72146415      -5.75766236
X        5.44328441      -4.47355217      -4.41427073
X       -3.60086791       4.54088606       0.39556976
X        1.95007421       2.25119773       3.43736739
X       -4.09271026       1.28749934      -2.76349626
X       -4.42917127       0.83390055      -3.12791161
X        5.89685977       4.48272270      -0.66929589
X       -1.06458624       0.43995888      -0.50151348
X        5.66968953       5.05243331      -2.89508253
X        0.22320726      -3.17935797       5.40858657
X       -3.29541031       0.92978728       3.02991519
X        2.66020634      -3.78306159       2.71236335
X        0.15336680      -1.70461920      -1.55248183
X        1.66245175      -5.50249729      -3.64736556
X       -4.58887551      -0.99724987      -4.20580205
X        4.99570396       1.92890029      -3.27307738
X       -0.12343214      -4.66131680      -2.62831139
X        5.41928293       4.85602927      -6.05390346
X       -6.19486781       0.97024698       1.51794355
X        0.54756007       4.22947865       5.63768131
X       -1.67470113       3.77263299       0.34896215
X       -4.53468585      -1.52468751       4.75720770
X       -5.04043065      -1.38910311       2.24281386
X        3.93117142       5.25982219       0.81660121
X        3.07036215      -3.61270000      -3.53471359
X        0.62162733       1.91528034      -3.44102639
X       -1.37785289      -3.36754606       0.92694351
X        5.29020128      -1.81178503      -3.83743495
X        2.73010038      -5.73724834       5.59345383
X        2.41335792      -5.92426036       5.99516629
X        2.58097140       3.50071592      -1.25488939
X        4.63647819       0.09434471       4.24171773
X       -2.17470761      -1.85356448      -2.90650857
X       -1.13571045       3.39188715       0.27179685
X        5.67878629      -4.25801969       0.24490190
X        1.15947693      -4.42123811       0.33695862
X       -3.63680347       5.63409010       4.98211385
X        0.59146343      -0.35636975       4.75936841
X       -2.56931363      -5.42518323      -2.77912580
X        0.99599968       1.43265809      -3.72683016
X        4.10193362       1.18901528      -5.66803723
X        4.68342358      -1.80714775       1.79564594
X        1.65123369      -6.06947983      -4.23264930
X       -4.56110833       0.84209131      -2.61022676
X       -3.93721410      -3.61736861      -4.77473461
X        6.01752545       1.27377082      -0.65623439
X        6.02778040       5.05815440      -3.55863291
X        0.70977660      -3.53488778       4.93220913
X        1.46360205       3.59697991       1.25566854
X       -0.05370384       5.30829748       2.87507597
X       -3.47438721       3.46147388       5.34439036
X        1.06512614       4.30926063      -2.67685743
X       -2.08856999      -5.65422888       2.60181962
X        4.84482099       0.82269855       4.10042247
X        3.84648964      -3.55374271      -3.51338907
X       -2.37792766       2.01183934      -2.80062606
X        4.76252168      -5.82667590       3.26672542
X       -3.51995126       3.93226330      -4.31007410
X        1.09978166       4.04836787      -2.89982484
X        4.11842087       0.63730844       4.24703493
X       -4.32614570      -1.21487161      -4.15010576
X        0.54387435      -2.13132987       2.71857210
X        3.13692661      -2.45255496       5.33469288
X        5.12315540      -5.51299635       2.79529505
X       -4.16080759      -2.67248159      -0.42603205
X        2.10925251      -5.45815291       5.61805767
X       -3.52391426      -2.38913892      -0.81766677
X       -1.31606244       0.08190338      -1.04515707
X       -0.36351366      -4.83678823      -2.01052513
X       -5.08481961       0.24494618      -6.03740014
X       -3.75500647      -3.97922003      -4.24338266
X       -2.78828820      -5.40335108      -3.28813481
X       -1.16863015      -3.11281025       0.50614940
X        3.99016457      -5.46080557      -1.15557169
X       -3.47461953       0.90514336       2.36609613
X        6.18211750      -3.80077442       0.20405809
X       -6.07200812       1.23055893      -0.56302453
X        5.10658085       5.33442007       5.99542868
X        2.39413162      -1.81117352       0.44079473
X        3.39927439      -3.49451889      -2.86927054
X       -5.23595600      -5.17632670       2.25064830
X       -2.54337565      -5.77499882       3.10232726
X       -5.62304582       1.10692956       1.84761771
X        3.38621698      -2.92671469      -3.40395763
X        3.18566949       4.14860537      -4.62345645
X       -1.06057711       3.68285021       0.85918778
X        0.44010424      -2.45203768      -1.60831245
X        5.85077016      -0.69559142      -0.69905958
X       -2.69658760      -1.08729553      -5.49910786
X       -0.69793958       3.06488679       3.01240088
X        1.73402384      -0.77107125      -3.38960733
X       -3.71563712       2.52017140       0.00780386
X        2.37512067      -4.23139708       2.58710104
X       -3.77608629       4.35663452       0.86097089
X        0.35470241       5.31083194      -1.33275717
X        0.60984853      -1.92718001      -2.01319798
X        3.48066963      -5.13924842      -1.41985856
X       -3.26724375       4.41405295      -4.32564409
X       -5.47432900      -5.71562011      -2.16142439
X       -0.79337685       4.49904389      -4.45132827
X        3.80773972      -2.44277810       5.42508919
X       -3.64482305      -2.29505306      -0.17083359
X       -4.73621460      -1.89942284       5.10140720
X       -0.51945041       0.81581955       1.50339997
X        0.59241845      -0.14294756       5.40341714
X        5.97574571       3.95552758      -0.25990174
X       -2.22477504       2.37346415      -2.43621370
X       -2.69803747      -1.83172550       1.48928544
X       -2.54681616      -1.86076859      -2.31345771
X        5.63747387       5.34194018       5.94401440
X        2.73592906       3.91286228      -5.10983760
X        0.10884598      -0.16344157       5.20100013
X        3.91808910       1.57642689      -5.14395932
X       -1.53730994      -6.11678207       5.77662211
X        0.97446870       3.72782458       5.40040734
X       -6.18976587       1.45544181       1.74148262
X       -5.58680230       0.69223366      -5.92835485
X       -2.63468667      -5.56069405       2.47357618
X       -2.69890038      -1.51087544      -2.69620535
X       -5.14597698      -5.02884698       2.78556701
X        4.60510798      -4.79689927       5.59106805
X        3.54858850      -5.75561103      -1.07931961
X        5.68083232       4.40759099      -3.30398644
X        0.88129400       2.08296010      -3.87249823
X       -2.92159712      -1.56931794       1.50101282
X        2.84977217      -1.74390582       0.16199741
X       -4.90585857       4.14911599       3.04303028
X        2.31939918       3.23670748      -0.68883015
X       -0.16518659      -2.44187223      -4.14553133
X        0.13019728      -3.93117307       5.22720058
X        1.13498762       4.25191995       5.30584932
X        5.96191946      -1.33924598      -0.91840104
X       -0.90962885       0.42120728      -1.13944687
X       -6.10953054      -4.27354355      -0.04188914
X        2.59149937       3.84392462      -4.59673265
X        3.85850166      -5.79939972      -1.71622248
X       -1.00485199       3.92813603       0.21020898
X        5.05332480       3.67868050       3.61165207
X       -3.66945992       2.69539350       5.29249606
X       -4.08099881      -3.38909467      -4.31304825
X        2.24129592       3.10058858      -1.34086118
